/*--------------------------------*- C++ -*----------------------------------*\
| =========                 |                                                 |
| \\      /  F ield         | OpenFOAM: The Open Source CFD Toolbox           |
|  \\    /   O peration     | Version:  1.5                                   |
|   \\  /    A nd           | Web:      http://www.OpenFOAM.org               |
|    \\/     M anipulation  |                                                 |
\*---------------------------------------------------------------------------*/
FoamFile
{
    version     2.0;
    format      ascii;
    class       dictionary;
    object      codeDict;
}
// * * * * * * * * * * * * * * * * * * * * * * * * * * * * * * * * * * * * * //
oscillatingMulti
{
code
        #{
            const scalar t = this->db().time().value();
            
            static const int N = 99;   

            static const scalar a2[N] = {2.215871726474019e-06, 5.292534857938731e-06, 1.1036562773764e-05, 2.0534389982802887e-05, 3.4704811889798316e-05, 5.4078084707756854e-05, 7.866693160405956e-05, 0.000107972452436303, 0.00014113435771559503, 0.0001772165797037051, 0.00021561000136874507, 0.0002565141624497581, 0.00030141692700986036, 0.00035343078774227984, 0.0004172611464703011, 0.0004984161599133433, 0.0006009966243578974, 0.0007234265581757814, 0.0008529711762313774, 0.0009635150553774261, 0.0010233772571780705, 0.0010206629087574745, 0.000968035390648242, 0.000882894481116727, 0.0007822355312889208, 0.0006813793446374008, 0.0005904740460402329, 0.0005141235560655989, 0.00045285263965385783, 0.00040493217278791363, 0.0003677761643425562, 0.00033876253751103107, 0.0003156182819864659, 0.0002965470967126991, 0.00028022514527789073, 0.00026573621591446917, 0.00025248451196948507, 0.0002401066301915562, 0.00022839504685621015, 0.00021723876548197728, 0.00020658167231331999, 0.00019639593015045165, 0.00018666646510125142, 0.0001773827441426353, 0.00016853488219941242, 0.00016011208647649108, 0.00015210224429749975, 0.00014449200722458323, 0.00013726705191685452, 0.00013041237474487337, 0.00012391256378669016, 0.00011775203066325589, 0.0001119152004520438, 0.00010638666350398772, 0.00010115129443883575, 9.619434352501228e-05, 9.15015051060336e-05, 8.705896709884304e-05, 8.28534449867606e-05, 7.887220319541037e-05, 7.510306627762422e-05, 7.15344219374118e-05, 6.81552175857052e-05, 6.495495183456695e-05, 6.192366209430772e-05, 5.905190923374569e-05, 5.6330760091913005e-05, 5.3751768485173284e-05, 5.1306955232834347e-05, 4.8988787623367025e-05, 4.67901586592424e-05, 4.4704366348397545e-05, 4.27250932525117e-05, 4.084638645434148e-05, 3.9062638067025444e-05, 3.7368566375980057e-05, 3.5759197677655645e-05, 3.4229848858026906e-05, 3.277611073643545e-05, 3.139383218660458e-05, 3.00791050356155e-05, 2.8828249733087128e-05, 2.7637801776073983e-05, 2.6504498870154085e-05, 2.5425268803416217e-05, 2.439721800736141e-05, 2.341762077690346e-05, 2.2483909120551902e-05, 2.1593663211266556e-05, 2.074460240841013e-05, 1.9934576821400834e-05, 1.9161559386230084e-05, 1.84236384266823e-05, 1.7719010673012805e-05, 1.7045974711770145e-05, 1.6402924841548582e-05, 1.5788345310547007e-05, 1.5200804912931719e-05, 1.4638951922171955e-05
                /* paste Python-generated a list here */
            };

            static const scalar w2[N] = {3.064163501319499, 3.1606326090660946, 3.2571017168126906, 3.353570824559286, 3.4500399323058817, 3.5465090400524772, 3.642978147799073, 3.739447255545669, 3.8359163632922644, 3.93238547103886, 4.028854578785456, 4.125323686532051, 4.221792794278647, 4.318261902025243, 4.414731009771838, 4.511200117518435, 4.607669225265029, 4.704138333011626, 4.80060744075822, 4.897076548504817, 4.993545656251412, 5.090014763998008, 5.186483871744604, 5.282952979491199, 5.379422087237795, 5.47589119498439, 5.572360302730987, 5.668829410477581, 5.765298518224178, 5.8617676259707725, 5.958236733717369, 6.0547058414639645, 6.15117494921056, 6.247644056957156, 6.344113164703751, 6.440582272450348, 6.537051380196942, 6.633520487943539, 6.729989595690133, 6.82645870343673, 6.9229278111833255, 7.019396918929921, 7.1158660266765175, 7.212335134423112, 7.308804242169709, 7.405273349916303, 7.5017424576629, 7.598211565409494, 7.694680673156091, 7.7911497809026855, 7.887618888649282, 7.9840879963958775, 8.080557104142473, 8.17702621188907, 8.273495319635664, 8.36996442738226, 8.466433535128855, 8.562902642875452, 8.659371750622046, 8.755840858368643, 8.85230996611524, 8.948779073861834, 9.04524818160843, 9.141717289355025, 9.238186397101622, 9.334655504848216, 9.431124612594813, 9.527593720341407, 9.624062828088004, 9.7205319358346, 9.817001043581195, 9.913470151327791, 10.009939259074386, 10.106408366820983, 10.202877474567577, 10.299346582314174, 10.395815690060768, 10.492284797807365, 10.588753905553961, 10.685223013300556, 10.781692121047152, 10.878161228793747, 10.974630336540343, 11.071099444286938, 11.167568552033535, 11.264037659780131, 11.360506767526726, 11.45697587527332, 11.553444983019917, 11.649914090766513, 11.746383198513108, 11.842852306259703, 11.939321414006299, 12.035790521752896, 12.132259629499492, 12.228728737246087, 12.325197844992681, 12.421666952739278, 12.518136060485874
            };

            static const scalar phi2[N] = {-76.60408753298748, -79.01581522665236, -81.42754292031726, -83.83927061398215, -86.25099830764704, -88.66272600131194, -91.07445369497682, -93.48618138864173, -95.89790908230661, -98.3096367759715, -100.7213644696364, -103.13309216330127, -105.54481985696617, -107.95654755063107, -110.36827524429596, -112.78000293796086, -115.19173063162573, -117.60345832529065, -120.01518601895552, -122.42691371262042, -124.83864140628529, -127.2503690999502, -129.6620967936151, -132.07382448727998, -134.48555218094486, -136.89727987460975, -139.30900756827467, -141.72073526193952, -144.13246295560444, -146.54419064926932, -148.9559183429342, -151.36764603659913, -153.779373730264, -156.1911014239289, -158.60282911759379, -161.0145568112587, -163.42628450492356, -165.83801219858847, -168.24973989225333, -170.66146758591825, -173.07319527958313, -175.48492297324802, -177.89665066691293, -180.3083783605778, -182.7201060542427, -185.1318337479076, -187.54356144157248, -189.95528913523736, -192.36701682890228, -194.77874452256714, -197.19047221623205, -199.60219990989694, -202.01392760356183, -204.42565529722674, -206.8373829908916, -209.2491106845565, -211.66083837822137, -214.07256607188629, -216.48429376555117, -218.89602145921606, -221.30774915288097, -223.71947684654586, -226.13120454021077, -228.54293223387563, -230.95465992754055, -233.3663876212054, -235.77811531487032, -238.18984300853518, -240.6015707022001, -243.013298395865, -245.42502608952987, -247.83675378319478, -250.24848147685964, -252.66020917052455, -255.07193686418944, -257.48366455785435, -259.8953922515192, -262.3071199451841, -264.718847638849, -267.1305753325139, -269.5423030261788, -271.9540307198437, -274.3657584135086, -276.77748610717344, -279.1892138008384, -281.6009414945033, -284.01266918816816, -286.424396881833, -288.83612457549793, -291.2478522691628, -293.6595799628277, -296.0713076564926, -298.4830353501575, -300.89476304382237, -303.3064907374873, -305.7182184311522, -308.129946124817, -310.54167381848197, -312.95340151214685
                /* paste Python-generated phi list here */
            };
            scalar pi = 3.141592653589793116;
            scalar y = 0;
            for (int i=0; i<N; i++)
            {
                y += a2[i] * cos(w2[i] * t + phi2[i]);
            }

            const scalar t0 = 0.0;
            const scalar t1 = 10; // ramp end time

            scalar x = (t - t0)/(t1 - t0);
            x = max(scalar(0), min(scalar(1), x)); // clamp to [0,1]

            // Quintic smootherstep (C2 smooth)
            scalar env = x*x*x*(10 - 15*x + 6*x*x);

            y*=env;


            //Info << "oscillatingMulti: t = " << t << ", y = " << y << endl;
            vector disp( 0, y, 0 );
            operator==(disp);
        #};
}


//OLDoscillatingMulti
//{
//code
 //       #{
  //          const scalar t = this->db().time().value();
   //        const scalar A1 = 0.01;
    //        const scalar A2 = 0.005;
     //       const scalar w1 = 6.28318;
       //     const scalar w2 = 4.71238;

         //   vector disp( A1*sin(w1*t) + A2*sin(w2*t), 0, 0 );
           // operator==(disp);
   //     #};
//}